data_test

_audit_creation_method generated by ABACUS

_cell_length_a 9.27069
_cell_length_b 9.5621
_cell_length_c 9.58764
_cell_angle_alpha 90.1781
_cell_angle_beta 88.9867
_cell_angle_gamma 89.9232

_symmetry_space_group_name_H-M 
_symmetry_Int_Tables_number 

loop_
_atom_site_label
_atom_site_fract_x
_atom_site_fract_y
_atom_site_fract_z
H 0.545037 0.403807 0.354649
H 0.393743 0.47814 0.434243
H 0.55774 0.565945 0.438806
H 0.53153 0.414656 0.536324
C 0.507736 0.465651 0.440656
