data_test

_audit_creation_method generated by ABACUS

_cell_length_a 9.70691
_cell_length_b 9.68815
_cell_length_c 9.58568
_cell_angle_alpha 91.0063
_cell_angle_beta 89.0541
_cell_angle_gamma 91.6643

_symmetry_space_group_name_H-M 
_symmetry_Int_Tables_number 

loop_
_atom_site_label
_atom_site_fract_x
_atom_site_fract_y
_atom_site_fract_z
H 0.535461 0.400221 0.350518
H 0.384059 0.479433 0.43378
H 0.55345 0.569839 0.439037
H 0.521761 0.414199 0.541959
C 0.498802 0.465841 0.441244
